<?xml version='1.0' encoding='utf-8'?>
<net xmlns:xsi="http://www.w3.org/2001/XMLSchema-instance" version="1.9" junctionCornerDetail="5" limitTurnSpeed="5.50" xsi:noNamespaceSchemaLocation="http://sumo.dlr.de/xsd/net_file.xsd">

    <location netOffset="-389697.27,-5822376.39" convBoundary="34.88,0.00,352.18,487.88" origBoundary="13.373488,52.540318,13.378936,52.545534" projParameter="+proj=utm +zone=33 +ellps=WGS84 +datum=WGS84 +units=m +no_defs" />

    <type id="highway.footway" priority="1" numLanes="1" speed="2.78" allow="pedestrian" oneway="1" width="2.00" />
    <type id="highway.residential" priority="3" numLanes="1" speed="13.89" allow="private emergency authority army vip hov taxi coach delivery trailer motorcycle moped evehicle custom1 custom2" oneway="0" />
    <type id="highway.service" priority="1" numLanes="1" speed="5.56" allow="pedestrian delivery bicycle" oneway="0" />
    <type id="highway.steps" priority="1" numLanes="1" speed="1.39" allow="pedestrian" oneway="1" width="2.00" />
    <type id="highway.tertiary" priority="10" numLanes="1" speed="22.22" allow="private emergency authority army vip hov taxi coach delivery trailer motorcycle moped evehicle custom1 custom2" oneway="0" />

    <edge id=":10011590818_0" function="internal">
        <lane id=":10011590818_0_0" index="0" allow="private emergency authority army vip hov taxi coach delivery trailer motorcycle moped evehicle custom1 custom2" speed="8.33" length="6.39" shape="103.14,352.40 97.39,355.19" />
    </edge>
    <edge id=":10011590818_1" function="internal">
        <lane id=":10011590818_1_0" index="0" allow="delivery" speed="5.03" length="5.06" shape="97.49,348.11 98.24,349.27 99.19,349.90 100.33,350.00 101.66,349.56" />
    </edge>
    <edge id=":10011590818_2" function="internal">
        <lane id=":10011590818_2_0" index="0" allow="delivery" speed="6.11" length="7.79" shape="97.49,348.11 98.48,350.72 98.79,352.77 98.43,354.26 97.39,355.19" />
    </edge>
    <edge id=":10011590818_3" function="internal">
        <lane id=":10011590818_3_0" index="0" allow="private emergency authority army vip hov taxi coach delivery trailer motorcycle moped evehicle custom1 custom2" speed="8.33" length="6.26" shape="96.02,352.29 101.66,349.56" />
    </edge>
    <edge id=":10089783270_0" function="internal">
        <lane id=":10089783270_0_0" index="0" allow="private emergency authority army vip hov taxi coach delivery trailer motorcycle moped evehicle custom1 custom2" speed="3.65" length="4.67" shape="42.45,222.37 41.39,221.39 41.12,220.54 41.64,219.81 42.95,219.21" />
    </edge>
    <edge id=":10118874935_0" function="internal">
        <lane id=":10118874935_0_0" index="0" allow="delivery" speed="5.28" length="5.28" shape="180.98,285.68 179.96,284.80 178.84,284.47 177.61,284.67 176.28,285.40" />
    </edge>
    <edge id=":10118874935_1" function="internal">
        <lane id=":10118874935_1_0" index="0" allow="private emergency authority army vip hov taxi coach delivery trailer motorcycle moped evehicle custom1 custom2" speed="8.33" length="9.40" shape="180.98,285.68 174.97,278.46" />
    </edge>
    <edge id=":10118874935_2" function="internal">
        <lane id=":10118874935_2_0" index="0" allow="private emergency authority army vip hov taxi coach delivery trailer motorcycle moped evehicle custom1 custom2" speed="8.33" length="9.36" shape="177.44,276.42 183.42,283.61" />
    </edge>
    <edge id=":10118874935_3" function="internal">
        <lane id=":10118874935_3_0" index="0" allow="delivery" speed="6.81" length="10.48" shape="177.44,276.42 178.94,278.90 179.25,281.22 178.36,283.39 176.28,285.40" />
    </edge>
    <edge id=":10118874935_4" function="internal">
        <lane id=":10118874935_4_0" index="0" allow="delivery" speed="4.98" length="5.08" shape="174.40,282.81 175.41,281.83 175.84,280.78 175.69,279.66 174.97,278.46" />
    </edge>
    <edge id=":10118874935_5" function="internal">
        <lane id=":10118874935_5_0" index="0" allow="delivery" speed="6.95" length="10.16" shape="174.40,282.81 176.91,281.45 179.25,281.14 181.42,281.86 183.42,283.61" />
    </edge>
    <edge id=":10118874935_6" function="internal">
        <lane id=":10118874935_6_0" index="0" allow="pedestrian delivery bicycle" speed="3.65" length="4.67" shape="174.40,282.81 175.85,282.75 176.64,283.17 176.78,284.05 176.28,285.40" />
    </edge>
    <edge id=":10118874936_0" function="internal">
        <lane id=":10118874936_0_0" index="0" allow="pedestrian delivery bicycle" speed="3.65" length="4.67" shape="173.04,287.75 171.60,287.81 170.80,287.39 170.66,286.51 171.16,285.16" />
    </edge>
    <edge id=":10305166367_0" function="internal">
        <lane id=":10305166367_0_0" index="0" allow="pedestrian delivery bicycle" speed="3.65" length="4.67" shape="285.82,450.71 284.39,450.94 283.55,450.64 283.30,449.78 283.62,448.37" />
    </edge>
    <edge id=":10305166369_0" function="internal">
        <lane id=":10305166369_0_0" index="0" allow="pedestrian delivery bicycle" speed="5.56" length="5.41" shape="299.72,437.87 295.68,441.47" />
    </edge>
    <edge id=":10305166369_1" function="internal">
        <lane id=":10305166369_1_0" index="0" allow="pedestrian delivery bicycle" speed="3.65" length="4.67" shape="299.72,437.87 298.29,438.07 297.46,437.74 297.22,436.87 297.59,435.48" />
    </edge>
    <edge id=":10305166369_2" function="internal">
        <lane id=":10305166369_2_0" index="0" allow="pedestrian delivery bicycle" speed="5.56" length="5.41" shape="293.55,439.08 297.59,435.48" />
    </edge>
    <edge id=":10305166369_3" function="internal">
        <lane id=":10305166369_3_0" index="0" allow="pedestrian delivery bicycle" speed="3.65" length="4.67" shape="293.55,439.08 294.98,438.88 295.81,439.21 296.04,440.07 295.68,441.47" />
    </edge>
    <edge id=":10305166372_0" function="internal">
        <lane id=":10305166372_0_0" index="0" allow="pedestrian delivery bicycle" speed="3.65" length="4.67" shape="288.11,453.75 286.69,454.01 285.85,453.71 285.58,452.86 285.89,451.45" />
    </edge>
    <edge id=":10305166374_0" function="internal">
        <lane id=":10305166374_0_0" index="0" allow="pedestrian delivery bicycle" speed="5.56" length="5.33" shape="301.86,440.69 297.91,444.28" />
    </edge>
    <edge id=":10305166374_1" function="internal">
        <lane id=":10305166374_1_0" index="0" allow="pedestrian delivery bicycle" speed="3.65" length="4.67" shape="301.86,440.69 300.42,440.85 299.60,440.50 299.39,439.63 299.79,438.25" />
    </edge>
    <edge id=":10305166374_2" function="internal">
        <lane id=":10305166374_2_0" index="0" allow="pedestrian delivery bicycle" speed="5.56" length="5.58" shape="295.67,442.00 299.79,438.25" />
    </edge>
    <edge id=":10305166374_3" function="internal">
        <lane id=":10305166374_3_0" index="0" allow="pedestrian delivery bicycle" speed="3.65" length="4.67" shape="295.67,442.00 297.09,441.73 297.93,442.02 298.21,442.87 297.91,444.28" />
    </edge>
    <edge id=":10678836757_0" function="internal">
        <lane id=":10678836757_0_0" index="0" allow="bicycle" speed="5.56" length="0.28" shape="299.32,405.10 299.12,405.29" />
    </edge>
    <edge id=":10678836757_1" function="internal">
        <lane id=":10678836757_1_0" index="0" allow="bicycle" speed="5.56" length="0.31" shape="296.91,402.97 297.14,402.76" />
    </edge>
    <edge id=":10678836757_2" function="internal">
        <lane id=":10678836757_2_0" index="0" allow="pedestrian delivery bicycle" speed="3.65" length="4.67" shape="296.91,402.97 298.33,402.72 299.17,403.03 299.43,403.88 299.12,405.29" />
    </edge>
    <edge id=":10797148839_0" function="internal">
        <lane id=":10797148839_0_0" index="0" allow="pedestrian delivery bicycle" speed="5.56" length="5.06" shape="280.55,414.83 276.68,418.09" />
    </edge>
    <edge id=":10797148839_1" function="internal">
        <lane id=":10797148839_1_0" index="0" allow="pedestrian delivery bicycle" speed="3.65" length="4.67" shape="280.55,414.83 279.12,414.99 278.30,414.63 278.09,413.76 278.50,412.37" />
    </edge>
    <edge id=":10797148839_2" function="internal">
        <lane id=":10797148839_2_0" index="0" allow="pedestrian delivery bicycle" speed="5.56" length="5.08" shape="274.61,415.65 278.50,412.37" />
    </edge>
    <edge id=":10797148839_3" function="internal">
        <lane id=":10797148839_3_0" index="0" allow="pedestrian delivery bicycle" speed="3.65" length="4.67" shape="274.61,415.65 276.04,415.48 276.87,415.83 277.08,416.70 276.68,418.09" />
    </edge>
    <edge id=":10797148840_0" function="internal">
        <lane id=":10797148840_0_0" index="0" allow="pedestrian delivery bicycle" speed="3.65" length="4.67" shape="268.74,426.13 267.33,426.44 266.48,426.17 266.18,425.33 266.44,423.91" />
    </edge>
    <edge id=":10814599593_0" function="internal">
        <lane id=":10814599593_0_0" index="0" allow="pedestrian delivery bicycle" speed="3.65" length="4.67" shape="166.24,246.14 167.67,245.96 168.50,246.30 168.72,247.17 168.34,248.56" />
    </edge>
    <edge id=":10814599594_0" function="internal">
        <lane id=":10814599594_0_0" index="0" allow="private emergency authority army vip hov taxi coach delivery trailer motorcycle moped evehicle custom1 custom2" speed="8.33" length="9.31" shape="159.53,260.37 153.28,253.48" />
    </edge>
    <edge id=":10814599594_1" function="internal">
        <lane id=":10814599594_1_0" index="0" allow="delivery" speed="6.85" length="10.22" shape="159.53,260.37 157.98,258.04 157.56,255.77 158.27,253.58 160.11,251.46" />
    </edge>
    <edge id=":10814599594_2" function="internal">
        <lane id=":10814599594_2_0" index="0" allow="delivery" speed="5.03" length="5.01" shape="162.21,253.87 161.31,254.91 160.96,255.99 161.16,257.10 161.92,258.25" />
    </edge>
    <edge id=":10814599594_3" function="internal">
        <lane id=":10814599594_3_0" index="0" allow="delivery" speed="6.92" length="10.12" shape="162.21,253.87 159.86,255.40 157.60,255.84 155.40,255.20 153.28,253.48" />
    </edge>
    <edge id=":10814599594_4" function="internal">
        <lane id=":10814599594_4_0" index="0" allow="pedestrian delivery bicycle" speed="3.65" length="4.67" shape="162.21,253.87 160.78,254.06 159.95,253.71 159.73,252.85 160.11,251.46" />
    </edge>
    <edge id=":10814599594_5" function="internal">
        <lane id=":10814599594_5_0" index="0" allow="delivery" speed="5.12" length="5.08" shape="155.63,251.30 156.69,252.16 157.78,252.47 158.93,252.23 160.11,251.46" />
    </edge>
    <edge id=":10814599594_6" function="internal">
        <lane id=":10814599594_6_0" index="0" allow="private emergency authority army vip hov taxi coach delivery trailer motorcycle moped evehicle custom1 custom2" speed="8.33" length="9.37" shape="155.63,251.30 161.92,258.25" />
    </edge>
    <edge id=":10814599595_0" function="internal">
        <lane id=":10814599595_0_0" index="0" allow="pedestrian delivery bicycle" speed="5.56" length="5.04" shape="167.85,248.98 164.05,252.28" />
    </edge>
    <edge id=":10814599595_1" function="internal">
        <lane id=":10814599595_1_0" index="0" allow="pedestrian delivery bicycle" speed="3.65" length="4.67" shape="167.85,248.98 166.42,249.16 165.60,248.82 165.37,247.95 165.76,246.56" />
    </edge>
    <edge id=":10814599595_2" function="internal">
        <lane id=":10814599595_2_0" index="0" allow="pedestrian delivery bicycle" speed="5.56" length="5.04" shape="161.95,249.86 165.76,246.56" />
    </edge>
    <edge id=":10814599595_3" function="internal">
        <lane id=":10814599595_3_0" index="0" allow="pedestrian delivery bicycle" speed="3.65" length="4.67" shape="161.95,249.86 163.38,249.68 164.21,250.02 164.43,250.89 164.05,252.28" />
    </edge>
    <edge id=":10814640892_0" function="internal">
        <lane id=":10814640892_0_0" index="0" allow="delivery" speed="5.20" length="5.36" width="4.00" shape="142.34,178.99 140.79,179.19 139.68,179.78 139.01,180.74 138.78,182.09" />
    </edge>
    <edge id=":10814640892_1" function="internal">
        <lane id=":10814640892_1_0" index="0" allow="delivery" speed="6.95" length="11.20" width="4.00" shape="142.34,178.99 139.04,178.61 136.69,177.43 135.28,175.45 134.82,172.67" />
    </edge>
    <edge id=":10814640892_2" function="internal">
        <lane id=":10814640892_2_0" index="0" allow="pedestrian delivery bicycle" speed="3.65" length="4.67" shape="142.34,178.99 141.14,178.20 140.73,177.40 141.13,176.60 142.32,175.79" />
    </edge>
    <edge id=":10814640892_3" function="internal">
        <lane id=":10814640892_3_0" index="0" allow="delivery" speed="5.27" length="5.34" shape="138.82,172.69 139.04,174.05 139.69,175.03 140.79,175.61 142.32,175.79" />
    </edge>
    <edge id=":10814640892_4" function="internal">
        <lane id=":10814640892_4_0" index="0" allow="private emergency authority army vip hov taxi coach delivery trailer motorcycle moped evehicle custom1 custom2" speed="8.33" length="9.40" width="4.00" shape="138.82,172.69 138.78,182.09" />
    </edge>
    <edge id=":10814640892_5" function="internal">
        <lane id=":10814640892_5_0" index="0" allow="private emergency authority army vip hov taxi coach delivery trailer motorcycle moped evehicle custom1 custom2" speed="8.33" length="9.41" width="4.00" shape="134.78,182.08 134.82,172.67" />
    </edge>
    <edge id=":10814640892_6" function="internal">
        <lane id=":10814640892_6_0" index="0" allow="delivery" speed="6.95" length="11.15" shape="134.78,182.08 135.26,179.34 136.68,177.38 139.03,176.20 142.32,175.79" />
    </edge>
    <edge id=":10814640893_0" function="internal">
        <lane id=":10814640893_0_0" index="0" allow="pedestrian delivery bicycle" speed="5.56" length="5.11" shape="149.63,178.96 144.53,178.98" />
    </edge>
    <edge id=":10814640893_1" function="internal">
        <lane id=":10814640893_1_0" index="0" allow="pedestrian delivery bicycle" speed="3.65" length="4.67" shape="149.63,178.96 148.43,178.17 148.03,177.37 148.42,176.57 149.62,175.76" />
    </edge>
    <edge id=":10814640893_2" function="internal">
        <lane id=":10814640893_2_0" index="0" allow="pedestrian delivery bicycle" speed="5.56" length="5.11" shape="144.51,175.78 149.62,175.76" />
    </edge>
    <edge id=":10814640893_3" function="internal">
        <lane id=":10814640893_3_0" index="0" allow="pedestrian delivery bicycle" speed="3.65" length="4.67" shape="144.51,175.78 145.71,176.58 146.12,177.37 145.72,178.18 144.53,178.98" />
    </edge>
    <edge id=":10814640894_0" function="internal">
        <lane id=":10814640894_0_0" index="0" allow="pedestrian delivery bicycle" speed="3.65" length="4.67" shape="160.86,175.86 162.06,176.67 162.45,177.47 162.04,178.27 160.84,179.06" />
    </edge>
    <edge id=":12873753274_0" function="internal">
        <lane id=":12873753274_0_0" index="0" allow="pedestrian delivery bicycle" speed="5.56" length="5.13" shape="251.39,272.63 247.18,269.70" />
    </edge>
    <edge id=":12873753274_1" function="internal">
        <lane id=":12873753274_1_0" index="0" allow="pedestrian delivery bicycle" speed="3.65" length="4.67" shape="251.39,272.63 250.86,271.29 250.99,270.40 251.78,269.97 253.22,270.00" />
    </edge>
    <edge id=":12873753274_2" function="internal">
        <lane id=":12873753274_2_0" index="0" allow="pedestrian delivery bicycle" speed="5.56" length="5.13" shape="249.00,267.07 253.22,270.00" />
    </edge>
    <edge id=":12873753274_3" function="internal">
        <lane id=":12873753274_3_0" index="0" allow="pedestrian delivery bicycle" speed="3.65" length="4.67" shape="249.00,267.07 249.53,268.41 249.41,269.30 248.62,269.73 247.18,269.70" />
    </edge>
    <edge id=":12873753275_0" function="internal">
        <lane id=":12873753275_0_0" index="0" allow="delivery" speed="5.12" length="5.10" shape="244.44,267.80 243.17,267.15 242.01,267.04 240.95,267.47 239.99,268.43" />
    </edge>
    <edge id=":12873753275_1" function="internal">
        <lane id=":12873753275_1_0" index="0" allow="delivery" speed="6.84" length="10.28" shape="244.44,267.80 242.37,265.87 241.43,263.76 241.63,261.45 242.95,258.96" />
    </edge>
    <edge id=":12873753275_2" function="internal">
        <lane id=":12873753275_2_0" index="0" allow="pedestrian delivery bicycle" speed="3.65" length="4.67" shape="244.44,267.80 243.91,266.46 244.04,265.57 244.82,265.14 246.27,265.17" />
    </edge>
    <edge id=":12873753275_3" function="internal">
        <lane id=":12873753275_3_0" index="0" allow="delivery" speed="5.01" length="5.03" shape="245.54,260.85 244.89,262.07 244.80,263.19 245.25,264.23 246.27,265.17" />
    </edge>
    <edge id=":12873753275_4" function="internal">
        <lane id=":12873753275_4_0" index="0" allow="private emergency authority army vip hov taxi coach delivery trailer motorcycle moped evehicle custom1 custom2" speed="8.33" length="9.40" shape="245.54,260.85 239.99,268.43" />
    </edge>
    <edge id=":12873753275_5" function="internal">
        <lane id=":12873753275_5_0" index="0" allow="private emergency authority army vip hov taxi coach delivery trailer motorcycle moped evehicle custom1 custom2" speed="8.33" length="9.40" shape="237.41,266.55 242.95,258.96" />
    </edge>
    <edge id=":12873753275_6" function="internal">
        <lane id=":12873753275_6_0" index="0" allow="delivery" speed="6.92" length="10.17" shape="237.41,266.55 239.33,264.59 241.45,263.71 243.76,263.90 246.27,265.17" />
    </edge>
    <edge id=":12873753276_0" function="internal">
        <lane id=":12873753276_0_0" index="0" allow="pedestrian delivery bicycle" speed="3.65" length="4.67" shape="255.07,271.29 255.60,272.63 255.47,273.51 254.69,273.94 253.25,273.91" />
    </edge>
    <edge id=":12873753277_0" function="internal">
        <lane id=":12873753277_0_0" index="0" allow="pedestrian delivery bicycle" speed="5.56" length="5.11" shape="257.71,228.99 253.51,226.07" />
    </edge>
    <edge id=":12873753277_1" function="internal">
        <lane id=":12873753277_1_0" index="0" allow="pedestrian delivery bicycle" speed="3.65" length="4.67" shape="257.71,228.99 257.18,227.65 257.31,226.77 258.09,226.34 259.53,226.37" />
    </edge>
    <edge id=":12873753277_2" function="internal">
        <lane id=":12873753277_2_0" index="0" allow="pedestrian delivery bicycle" speed="5.56" length="5.11" shape="255.34,223.45 259.53,226.37" />
    </edge>
    <edge id=":12873753277_3" function="internal">
        <lane id=":12873753277_3_0" index="0" allow="pedestrian delivery bicycle" speed="3.65" length="4.67" shape="255.34,223.45 255.87,224.79 255.74,225.68 254.95,226.10 253.51,226.07" />
    </edge>
    <edge id=":12873753279_0" function="internal">
        <lane id=":12873753279_0_0" index="0" allow="pedestrian delivery bicycle" speed="3.65" length="4.67" shape="252.19,225.15 251.66,223.81 251.79,222.93 252.57,222.50 254.01,222.53" />
    </edge>
    <edge id=":12873753280_0" function="internal">
        <lane id=":12873753280_0_0" index="0" allow="pedestrian delivery bicycle" speed="5.56" length="5.49" shape="268.96,213.85 264.28,210.99" />
    </edge>
    <edge id=":12873753280_1" function="internal">
        <lane id=":12873753280_1_0" index="0" allow="pedestrian delivery bicycle" speed="3.65" length="4.67" shape="268.96,213.85 268.35,212.54 268.43,211.65 269.19,211.18 270.63,211.12" />
    </edge>
    <edge id=":12873753280_2" function="internal">
        <lane id=":12873753280_2_0" index="0" allow="pedestrian delivery bicycle" speed="5.56" length="5.49" shape="265.95,208.26 270.63,211.12" />
    </edge>
    <edge id=":12873753280_3" function="internal">
        <lane id=":12873753280_3_0" index="0" allow="pedestrian delivery bicycle" speed="3.65" length="4.67" shape="265.95,208.26 266.55,209.57 266.48,210.46 265.72,210.94 264.28,210.99" />
    </edge>
    <edge id=":12873753281_0" function="internal">
        <lane id=":12873753281_0_0" index="0" allow="private emergency authority army vip hov taxi coach delivery trailer motorcycle moped evehicle custom1 custom2" speed="8.33" length="6.07" shape="278.00,216.35 274.44,221.27" />
    </edge>
    <edge id=":12873753281_1" function="internal">
        <lane id=":12873753281_1_0" index="0" allow="delivery" speed="6.22" length="7.68" shape="278.00,216.35 276.99,217.06 275.49,217.08 273.48,216.43 270.98,215.09" />
    </edge>
    <edge id=":12873753281_2" function="internal">
        <lane id=":12873753281_2_0" index="0" allow="delivery" speed="4.46" length="3.47" shape="272.65,212.36 275.40,214.47" />
    </edge>
    <edge id=":12873753281_3" function="internal">
        <lane id=":12873753281_3_0" index="0" allow="delivery" speed="6.80" length="10.55" shape="272.65,212.36 274.90,214.22 275.95,216.33 275.80,218.68 274.44,221.27" />
    </edge>
    <edge id=":12873753281_4" function="internal">
        <lane id=":12873753281_4_0" index="0" allow="pedestrian delivery bicycle" speed="3.65" length="4.67" shape="272.65,212.36 273.26,213.67 273.18,214.56 272.43,215.03 270.98,215.09" />
    </edge>
    <edge id=":12873753281_5" function="internal">
        <lane id=":12873753281_5_0" index="0" allow="delivery" speed="4.96" length="5.10" shape="271.85,219.39 272.50,218.14 272.58,217.01 272.07,215.99 270.98,215.09" />
    </edge>
    <edge id=":12873753281_6" function="internal">
        <lane id=":12873753281_6_0" index="0" allow="private emergency authority army vip hov taxi coach delivery trailer motorcycle moped evehicle custom1 custom2" speed="8.33" length="6.07" shape="271.85,219.39 275.40,214.47" />
    </edge>
    <edge id=":12873753283_0" function="internal">
        <lane id=":12873753283_0_0" index="0" allow="pedestrian delivery bicycle" speed="5.56" length="5.10" shape="270.61,211.01 266.51,207.96" />
    </edge>
    <edge id=":12873753283_1" function="internal">
        <lane id=":12873753283_1_0" index="0" allow="pedestrian delivery bicycle" speed="3.65" length="4.67" shape="270.61,211.01 270.12,209.65 270.28,208.77 271.07,208.36 272.51,208.44" />
    </edge>
    <edge id=":12873753283_2" function="internal">
        <lane id=":12873753283_2_0" index="0" allow="pedestrian delivery bicycle" speed="5.56" length="5.10" shape="268.42,205.40 272.51,208.44" />
    </edge>
    <edge id=":12873753283_3" function="internal">
        <lane id=":12873753283_3_0" index="0" allow="pedestrian delivery bicycle" speed="3.65" length="4.67" shape="268.42,205.40 268.91,206.75 268.75,207.63 267.95,208.04 266.51,207.96" />
    </edge>
    <edge id=":12873753284_0" function="internal">
        <lane id=":12873753284_0_0" index="0" allow="private emergency authority army vip hov taxi coach delivery trailer motorcycle moped evehicle custom1 custom2" speed="8.33" length="6.04" shape="281.65,211.29 278.11,216.18" />
    </edge>
    <edge id=":12873753284_1" function="internal">
        <lane id=":12873753284_1_0" index="0" allow="delivery" speed="6.85" length="10.22" shape="281.65,211.29 279.70,213.31 277.58,214.21 275.29,213.99 272.82,212.65" />
    </edge>
    <edge id=":12873753284_2" function="internal">
        <lane id=":12873753284_2_0" index="0" allow="delivery" speed="5.03" length="5.01" shape="274.73,210.08 275.94,210.74 277.06,210.84 278.11,210.40 279.06,209.41" />
    </edge>
    <edge id=":12873753284_3" function="internal">
        <lane id=":12873753284_3_0" index="0" allow="delivery" speed="6.07" length="7.65" shape="274.73,210.08 276.84,211.87 278.11,213.49 278.54,214.93 278.11,216.18" />
    </edge>
    <edge id=":12873753284_4" function="internal">
        <lane id=":12873753284_4_0" index="0" allow="pedestrian delivery bicycle" speed="3.65" length="4.67" shape="274.73,210.08 275.22,211.44 275.06,212.32 274.26,212.72 272.82,212.65" />
    </edge>
    <edge id=":12873753284_5" function="internal">
        <lane id=":12873753284_5_0" index="0" allow="delivery" speed="4.22" length="3.17" shape="275.52,214.31 272.82,212.65" />
    </edge>
    <edge id=":12873753284_6" function="internal">
        <lane id=":12873753284_6_0" index="0" allow="private emergency authority army vip hov taxi coach delivery trailer motorcycle moped evehicle custom1 custom2" speed="8.33" length="6.04" shape="275.52,214.31 279.06,209.41" />
    </edge>
    <edge id=":12873753285_0" function="internal">
        <lane id=":12873753285_0_0" index="0" allow="pedestrian delivery bicycle" speed="3.65" length="4.67" shape="265.36,207.10 264.87,205.75 265.03,204.87 265.82,204.46 267.26,204.54" />
    </edge>
    <edge id=":12873753351_0" function="internal">
        <lane id=":12873753351_0_0" index="0" allow="delivery" speed="5.03" length="5.01" shape="114.03,234.12 112.65,234.10 111.60,234.52 110.88,235.39 110.49,236.71" />
    </edge>
    <edge id=":12873753351_1" function="internal">
        <lane id=":12873753351_1_0" index="0" allow="private emergency authority army vip hov taxi coach delivery trailer motorcycle moped evehicle custom1 custom2" speed="8.33" length="9.38" shape="114.03,234.12 104.77,232.59" />
    </edge>
    <edge id=":12873753351_2" function="internal">
        <lane id=":12873753351_2_0" index="0" allow="private emergency authority army vip hov taxi coach delivery trailer motorcycle moped evehicle custom1 custom2" speed="8.33" length="9.35" shape="105.31,229.43 114.53,230.96" />
    </edge>
    <edge id=":12873753351_3" function="internal">
        <lane id=":12873753351_3_0" index="0" allow="delivery" speed="6.91" length="10.14" shape="105.31,229.43 107.92,230.28 109.65,231.77 110.51,233.92 110.49,236.71" />
    </edge>
    <edge id=":12873753351_4" function="internal">
        <lane id=":12873753351_4_0" index="0" allow="delivery" speed="5.10" length="5.06" shape="107.32,236.24 107.34,234.84 106.92,233.76 106.06,233.01 104.77,232.59" />
    </edge>
    <edge id=":12873753351_5" function="internal">
        <lane id=":12873753351_5_0" index="0" allow="delivery" speed="6.85" length="10.22" shape="107.32,236.24 108.12,233.55 109.59,231.78 111.73,230.91 114.53,230.96" />
    </edge>
    <edge id=":12873753351_6" function="internal">
        <lane id=":12873753351_6_0" index="0" allow="pedestrian delivery bicycle" speed="3.65" length="4.67" shape="107.32,236.24 108.29,235.17 109.14,234.89 109.87,235.41 110.49,236.71" />
    </edge>
    <edge id=":12873827440_0" function="internal">
        <lane id=":12873827440_0_0" index="0" allow="pedestrian delivery bicycle" speed="5.56" length="3.40" shape="114.96,412.01 112.66,414.51" />
    </edge>
    <edge id=":12873827440_1" function="internal">
        <lane id=":12873827440_1_0" index="0" allow="pedestrian delivery bicycle" speed="3.65" length="4.67" shape="114.96,412.01 113.56,412.35 112.70,412.10 112.38,411.27 112.60,409.84" />
    </edge>
    <edge id=":12873827440_2" function="internal">
        <lane id=":12873827440_2_0" index="0" allow="pedestrian delivery bicycle" speed="5.56" length="3.39" shape="110.31,412.34 112.60,409.84" />
    </edge>
    <edge id=":12873827440_3" function="internal">
        <lane id=":12873827440_3_0" index="0" allow="pedestrian delivery bicycle" speed="3.65" length="4.67" shape="110.31,412.34 111.71,412.00 112.57,412.25 112.89,413.09 112.66,414.51" />
    </edge>
    <edge id=":12873827442_0" function="internal">
        <lane id=":12873827442_0_0" index="0" allow="pedestrian delivery bicycle" speed="3.65" length="4.67" shape="112.69,409.75 114.09,409.40 114.95,409.65 115.27,410.49 115.05,411.91" />
    </edge>
    <edge id=":12873827444_0" function="internal">
        <lane id=":12873827444_0_0" index="0" allow="pedestrian delivery bicycle" speed="3.72" length="4.96" shape="115.71,412.74 117.23,412.93 117.99,413.50 117.98,414.45 117.22,415.78" />
    </edge>
    <edge id=":12873827482_0" function="internal">
        <lane id=":12873827482_0_0" index="0" allow="pedestrian delivery bicycle" speed="5.56" length="5.24" shape="242.36,368.20 238.44,371.67" />
    </edge>
    <edge id=":12873827482_1" function="internal">
        <lane id=":12873827482_1_0" index="0" allow="pedestrian delivery bicycle" speed="3.65" length="4.67" shape="242.36,368.20 240.93,368.40 240.10,368.06 239.87,367.20 240.24,365.81" />
    </edge>
    <edge id=":12873827482_2" function="internal">
        <lane id=":12873827482_2_0" index="0" allow="pedestrian delivery bicycle" speed="5.56" length="5.24" shape="236.32,369.28 240.24,365.81" />
    </edge>
    <edge id=":12873827482_3" function="internal">
        <lane id=":12873827482_3_0" index="0" allow="pedestrian delivery bicycle" speed="3.65" length="4.67" shape="236.32,369.28 237.75,369.08 238.58,369.42 238.81,370.28 238.44,371.67" />
    </edge>
    <edge id=":12873827484_0" function="internal">
        <lane id=":12873827484_0_0" index="0" allow="pedestrian delivery bicycle" speed="3.65" length="4.67" shape="237.75,372.29 236.32,372.48 235.49,372.15 235.26,371.29 235.63,369.89" />
    </edge>
    <edge id=":12873827485_0" function="internal">
        <lane id=":12873827485_0_0" index="0" allow="pedestrian delivery bicycle" speed="5.56" length="5.14" shape="232.91,356.83 229.01,360.18" />
    </edge>
    <edge id=":12873827485_1" function="internal">
        <lane id=":12873827485_1_0" index="0" allow="pedestrian delivery bicycle" speed="3.65" length="4.67" shape="232.91,356.83 231.48,357.00 230.65,356.66 230.44,355.79 230.82,354.40" />
    </edge>
    <edge id=":12873827485_2" function="internal">
        <lane id=":12873827485_2_0" index="0" allow="pedestrian delivery bicycle" speed="5.56" length="5.14" shape="226.93,357.75 230.82,354.40" />
    </edge>
    <edge id=":12873827485_3" function="internal">
        <lane id=":12873827485_3_0" index="0" allow="pedestrian delivery bicycle" speed="3.65" length="4.67" shape="226.93,357.75 228.36,357.58 229.18,357.92 229.40,358.79 229.01,360.18" />
    </edge>
    <edge id=":12873827486_0" function="internal">