<?xml version="1.0" encoding="UTF-8"?>

<!-- generated on 2026-01-20T12:32:12.685492+00:00 by Eclipse SUMO polyconvert 597b765be
<polyconvertConfiguration xmlns:xsi="http://www.w3.org/2001/XMLSchema-instance" xsi:noNamespaceSchemaLocation="http://sumo.dlr.de/xsd/polyconvertConfiguration.xsd">

    <input>
        <net-file value="osm.net.xml.gz"/>
        <osm-files value="osm_bbox.osm.xml.gz"/>
        <osm.keep-full-type value="true"/>
        <osm.merge-relations value="1"/>
        <type-file value="${SUMO_HOME}/data/typemap/osmPolyconvert.typ.xml"/>
    </input>

    <output>
        <output-file value="osm.poly.xml.gz"/>
    </output>

    <report>
        <verbose value="true"/>
    </report>

</polyconvertConfiguration>
-->

<additional xmlns:xsi="http://www.w3.org/2001/XMLSchema-instance" xsi:noNamespaceSchemaLocation="http://sumo.dlr.de/xsd/additional_file.xsd">
    <location netOffset="-389697.27,-5822376.39" convBoundary="-204.14,-235.18,379.89,625.85" origBoundary="13.370363,52.538213,13.379012,52.545896" projParameter="+proj=utm +zone=33 +ellps=WGS84 +datum=WGS84 +units=m +no_defs"/>

    <poly id="1026820038" type="traffic_sign.DE:274.1" color="black" fill="0" layer="0.00" shape="63.373681,369.482328 68.247404,378.330409 107.241710,418.012923 110.081685,420.908961 142.527833,453.928993"/>
    <poly id="1030235837" type="landuse.residential" color="235,235,227" fill="1" layer="-3.00" shape="266.351179,570.299223 265.557572,570.606393 186.217680,490.691056 184.655727,489.112678 181.393200,485.825509 179.935458,484.356064 176.985317,481.384573 71.548342,375.184776 71.416030,374.431066 71.498200,373.561247 71.779271,372.787097 72.519170,372.202912 75.185371,370.996689 157.757230,332.115197 161.552677,330.138042 164.868139,328.839361 191.996365,315.765725 197.347477,313.275099 197.657148,313.167981 197.983134,313.182902 198.284750,313.320776 204.109253,320.411657 220.934551,340.619525 240.074258,363.590719 266.416744,395.224336 343.435056,488.357297 343.490422,489.613492 343.040734,491.036825 302.524546,532.319077 300.429120,534.469335 300.316349,534.583148 298.294011,536.664998 266.351179,570.299223"/>
    <poly id="1051141244" type="leisure.playground" color="207,245,201" fill="1" layer="-2.00" shape="45.374241,327.902680 37.406892,328.093335 37.120304,318.084774 39.154839,318.050057 43.251034,317.980014 60.829510,317.684111 60.882836,325.772818 45.335663,325.889418 45.353441,326.979542 45.374241,327.902680"/>
    <poly id="1055441984" type="amenity.bicycle_parking" color="237,199,199" fill="1" layer="-1.00" shape="85.282003,341.247219 85.306804,342.348312 71.330838,342.640870 71.306034,341.539777 85.282003,341.247219"/>
    <poly id="1085108519" type="amenity.parking" color="184,184,179" fill="1" layer="-1.00" shape="71.738797,153.537068 73.477202,172.882525 89.737165,172.160205 90.199553,180.339846 95.044830,179.785613 95.189183,180.772735 99.452784,180.298373 99.715134,182.006144 106.298886,181.524050 104.682541,164.278989 102.751405,160.472261 102.162020,159.305988 101.713416,155.955497 95.127149,151.808492 71.738797,153.537068"/>
    <poly id="1087191174" type="landuse.grass" color="194,194,130" fill="1" layer="-3.00" shape="44.592255,352.212284 45.941153,352.159635 64.505008,351.641238 64.527825,352.352903 64.563185,353.320225 48.909007,360.727935 44.592255,352.212284"/>
    <poly id="1087191175" type="natural.scrub" color="140,196,107" fill="1" layer="-4.00" shape="45.941153,352.159635 45.980719,354.517837 52.917093,354.038845 58.870753,353.303807 64.527825,352.352903 64.505008,351.641238 45.941153,352.159635"/>
    <poly id="1091622532" type="landuse.grass" color="194,194,130" fill="1" layer="-3.00" shape="136.718643,278.763680 149.923207,268.607203 135.695897,250.210541 111.926802,247.362864 112.239137,268.765701 113.900736,268.739414 113.821191,263.700315 121.247663,263.588734 121.376246,271.408676 122.115627,271.403156 122.178464,274.495267 121.425522,274.501092 121.504830,279.228618 136.718643,278.763680"/>
    <poly id="1091622533" type="landuse.grass" color="194,194,130" fill="1" layer="-3.00" shape="105.001138,263.086600 104.761333,246.110990 76.650920,241.491779 76.774512,249.990629 77.791418,249.956596 85.211382,249.856235 85.320931,257.732245 86.100750,257.714681 86.142014,260.751639 85.362196,260.769203 85.432752,265.407904 100.813111,265.106022 105.001138,263.086600"/>
    <poly id="1091622534" type="landuse.grass" color="194,194,130" fill="1" layer="-3.00" shape="67.801758,239.587961 59.099735,238.192722 59.232017,249.184004 59.236918,251.509603 68.116558,251.454226 67.801758,239.587961"/>
    <poly id="1091622535" type="landuse.grass" color="194,194,130" fill="1" layer="-3.00" shape="49.172355,236.613679 53.770620,237.444814 53.729833,249.185558 53.738762,251.388660 49.396389,251.375217 49.336810,247.526342 50.082725,247.509536 50.039935,244.405845 49.294020,244.422651 49.172355,236.613679"/>
    <poly id="1092199789" type="building.roof" color="255,230,230" fill="1" layer="-1.00" shape="56.527619,254.419356 53.739360,254.426535 53.738762,251.388660 53.729833,249.185558 59.232017,249.184004 59.236918,251.509603 59.248067,254.413706 56.527619,254.419356"/>
    <poly id="1093168093" type="leisure.playground" color="207,245,201" fill="1" layer="-2.00" shape="57.882874,306.745105 58.113349,308.242165 58.499567,309.123687 59.053555,309.923536 60.367245,311.017847 61.183199,311.400065 62.063205,311.613924 63.258407,311.664892 64.769575,311.285887 66.034388,310.511831 66.849154,309.636636 67.681288,308.026616 73.392863,307.986975 74.061590,309.362885 75.068631,310.397342 75.859464,310.869150 76.734943,311.183264 78.094642,311.308425 79.067843,311.141842 79.989068,310.776130 80.731233,310.292046 81.368426,309.665664 82.132989,308.368747 82.439971,306.937474 82.416906,306.214687 82.227090,305.317611 81.735153,304.260424 80.940327,303.310209 79.803680,302.545738 78.621554,302.171764 78.521960,300.159877 79.516025,299.714629 80.427732,298.926276 80.934084,298.213819 81.281969,297.393654 81.472405,296.209819 81.406901,295.410093 81.199747,294.646941 80.794943,293.843730 79.883587,292.840501 78.865721,292.229144 77.719250,291.932262 76.390679,291.984444 75.400638,292.307196 74.631097,292.780770 73.788702,293.634330 73.325041,294.434848 73.046470,295.320219 72.968557,296.379114 73.212356,297.564297 73.667383,298.488782 74.605864,299.491399 75.932380,300.251591 76.043265,302.463525 74.878909,303.179676 74.294711,303.749225 73.691406,304.675295 73.303572,305.830194 67.666836,305.879277 67.341664,304.695928 66.373569,303.282251 65.661349,302.686266 64.676887,302.051904 64.709869,300.504398 65.935002,299.775747 66.544821,299.138853 66.995921,298.383128 67.288053,297.497451 67.375502,296.560747 67.253492,295.662144 66.936087,294.823581 66.367535,293.979549 65.606093,293.306779 64.782102,292.869102 63.880999,292.622335 62.767915,292.602900 61.695752,292.894121 60.538428,293.621245 59.929611,294.302628 59.479764,295.113964 59.246659,295.909289 59.177048,296.734315 59.269680,297.533429 59.510742,298.295816 59.927607,299.031987 60.477837,299.665003 61.133305,300.150987 61.804606,300.436314 61.764844,301.983974 60.860955,302.215765 59.949768,302.725916 59.019475,303.592587 58.203176,305.001952 57.964793,305.864163 57.882874,306.745105"/>
    <poly id="1093168096" type="leisure.playground" color="207,245,201" fill="1" layer="-2.00" shape="89.618792,306.074731 89.741166,313.616619 109.489810,313.283141 109.367467,305.741253 89.618792,306.074731"/>
    <poly id="1106172576" type="natural.scrub" color="140,196,107" fill="1" layer="-4.00" shape="146.753141,305.600567 146.810141,312.954753 164.110364,305.721745 146.753141,305.600567"/>
    <poly id="1143843529" type="traffic_sign.DE:274.1" color="black" fill="0" layer="0.00" shape="185.410659,311.329273 188.596801,310.011263 200.154871,305.978871"/>
    <poly id="1147681967" type="landuse.construction" color="194,194,130" fill="1" layer="-3.00" shape="308.978249,417.123883 298.120739,404.025751 296.886277,402.528998 351.935691,345.552711 348.454971,385.390460 327.958061,401.619138 308.978249,417.123883"/>
    <poly id="1148504324" type="landuse.residential" color="235,235,227" fill="1" layer="-3.00" shape="48.909007,360.727935 44.592255,352.212284 42.360787,348.022874 26.544041,318.111679 24.977526,315.131348 20.690313,307.026779 16.030787,307.087281 15.960427,302.159251 15.820233,291.724534 15.755150,286.729619 17.132193,286.720840 16.617242,231.360517 59.099735,238.192722 67.801758,239.587961 123.752598,248.587711 150.324831,268.064028 176.752493,300.118136 146.842440,314.389511 64.563185,353.320225 48.909007,360.727935"/>
    <poly id="1151416887" type="landuse.residential" color="235,235,227" fill="1" layer="-3.00" shape="24.341400,5.703914 36.408942,6.489140 52.302164,7.533169 73.497127,9.003093 76.254625,9.130156 92.030037,10.065690 102.269104,10.703082 123.087049,12.003665 123.663195,12.280016 124.447248,13.352887 124.487023,19.338740 124.543461,35.105543 124.061985,109.249699 124.020611,119.465940 123.977606,127.801621 123.853687,144.295793 123.490296,192.943540 123.291187,218.753367 123.267640,221.624867 121.013086,221.230518 90.468407,216.376710 64.805501,212.292211 60.414907,211.645558 55.622473,210.930068 55.329633,210.881026 46.532620,209.487948 42.188235,208.784632 39.226427,208.317233 38.885116,208.224774 43.646608,179.864015 39.715158,137.266374 35.706480,131.892950 32.147610,126.609545 20.545225,104.604278 10.351886,84.915244 12.215818,55.028487 21.246481,55.637303 24.341400,5.703914"/>
    <poly id="116701403" type="leisure.playground" color="207,245,201" fill="1" layer="-2.00" shape="327.958061,401.619138 331.443397,406.370262 336.962719,401.706091 342.309000,397.190476 347.380498,397.655157 342.863749,448.443673 335.331539,448.969032 323.678659,434.887223 308.978249,417.123883 327.958061,401.619138"/>
    <poly id="1184387222" type="leisure.park" color="207,245,201" fill="1" layer="-2.00" shape="46.064847,391.070761 44.466278,392.086027 43.303717,392.579590 69.241315,452.263363 67.796808,451.383426 75.186510,466.818127 75.996734,470.561071 72.354397,472.100864 71.136872,467.443489 65.355062,469.476597 58.233663,471.973878 60.400928,478.134361 64.201949,511.944004 64.685170,516.228448 70.340654,547.436921 14.452683,567.869521 40.838701,585.758130 42.081422,583.103964 40.291375,582.543401 31.594665,576.541202 29.652973,574.971430 28.551610,572.459112 28.389755,569.491636 29.229385,567.313919 30.713399,565.733709 33.057048,564.067360 73.207750,549.430973 72.348627,544.420562 72.717722,536.110908 71.459226,527.526343 67.966060,515.208669 67.108493,509.063188 67.988253,483.972436 67.244451,477.757625 76.571684,473.496986 77.220938,477.021000 82.550487,474.185764 86.895434,474.021127 115.133746,500.948701 119.371708,496.335383 118.099282,494.961934 142.172107,470.673201 125.195269,453.373370 98.322090,480.440437 76.724871,459.517020 72.161115,451.173829 46.064847,391.070761"/>
    <poly id="1190323793" type="amenity.bicycle_parking" color="237,199,199" fill="1" layer="-1.00" shape="60.882836,325.772818 63.085889,325.689803 62.944164,317.591959 60.829510,317.684111 60.882836,325.772818"/>
    <poly id="1264346436" type="amenity.parking_space" color="237,199,199" fill="1" layer="-1.00" shape="276.768172,268.134885 274.703137,266.512149 271.675680,270.363666 273.740714,271.986400 276.768172,268.134885"/>
    <poly id="1264346437" type="amenity.parking_space" color="237,199,199" fill="1" layer="-1.00" shape="272.368139,264.650673 270.303101,263.027940 267.275645,266.879460 269.340682,268.502192 272.368139,264.650673"/>
    <poly id="1264346439" type="amenity.parking_space" color="237,199,199" fill="1" layer="-1.00" shape="310.874464,281.455912 308.824325,284.117021 312.378034,286.774575 314.401549,284.136321 310.874464,281.455912"/>
    <poly id="1264346440" type="amenity.parking_space" color="237,199,199" fill="1" layer="-1.00" shape="308.824325,284.117021 306.897746,286.842121 310.349239,289.479716 312.378034,286.774575 308.824325,284.117021"/>
    <poly id="1264346441" type="amenity.parking_space" color="237,199,199" fill="1" layer="-1.00" shape="306.897746,286.842121 305.144475,289.429793 308.584686,291.867340 310.349239,289.479716 306.897746,286.842121"/>
    <poly id="13790855" type="landuse.residential" color="235,235,227" fill="1" layer="-3.00" shape="362.067241,282.252858 357.556394,302.217278 356.759144,309.913354 355.405004,323.018912 353.208636,344.233287 351.935691,345.552711 348.454971,385.390460 348.017187,390.363285 347.380498,397.655157 342.309000,397.190476 336.962719,401.706091 331.443397,406.370262 327.958061,401.619138 308.978249,417.123883 323.678659,434.887223 335.331539,448.969032 352.733664,469.832026 372.124717,450.289954 376.979294,445.329184 377.500879,445.595660 379.885023,453.576354 354.697303,479.023957 353.845898,479.477071 352.028165,479.495660 350.335083,478.721377 316.206990,437.503273 313.344870,433.917696 311.700603,431.996167 303.278919,421.625217 299.482899,416.936736 294.870232,411.532183 282.502970,396.765476 279.649275,393.858522 277.854111,391.261602 276.665077,389.975260 273.961611,386.508542 271.717183,383.543382 267.392725,378.588611 258.793361,367.565189 252.622942,360.170449 248.156074,354.918447 244.170336,350.245400 239.268997,344.680472 236.040125,340.780480 234.794069,339.373024 228.910631,332.072007 224.778704,327.235346 221.185691,322.831677 216.660730,317.714542 215.009382,315.481624 213.497655,313.423611 213.437653,313.169022 213.486145,312.911992 213.622290,312.630734 214.905792,310.877052 311.784573,178.269855 312.897088,176.753728 313.269582,176.422650 313.772668,176.166532 314.279504,176.077246 314.795871,176.110151 315.205989,176.245594 315.583451,176.437411 316.827022,177.733666 373.600073,237.827643 373.213917,241.174649 371.936352,249.538048 367.909101,272.006468 365.842496,271.218314 362.067241,282.252858"/>
    <poly id="13790856" type="landuse.residential" color="235,235,227" fill="1" layer="-3.00" shape="143.811871,230.999315 197.430612,294.355993 199.037809,296.133659 200.679258,296.719882 200.959280,296.802604 201.229268,296.740891 204.014845,295.409649 211.163020,291.977256 212.512511,291.045545 214.135793,289.618052 215.844002,287.743538 302.648871,168.749527 304.537561,166.147685 304.660903,165.900101 304.661684,165.633017 304.608215,165.367153 304.508279,165.146843 302.190652,162.550529 161.489550,13.231252 159.921665,11.697521 158.360538,10.464089 156.598473,9.346458 154.729657,8.309125 153.215702,7.664406 151.178079,6.964707 149.847449,6.627440 148.013745,6.245858 147.517202,6.190268 147.001317,6.179624 146.264400,6.296362 145.436799,6.604313 144.767424,7.008852 144.211057,7.611148 143.725007,8.323139 143.526050,8.828368 143.362503,9.399566 143.266246,10.247445 143.155931,31.871213 142.833522,104.353737 142.410591,225.411326 142.510408,227.434337 142.635430,228.165956 142.805666,228.796408 143.176288,229.889716 143.811871,230.999315"/>
    <poly id="1396650496" type="traffic_sign.DE:274.1" color="black" fill="0" layer="0.00" shape="139.121928,333.380408 185.410659,311.329273"/>
    <poly id="1396650497" type="traffic_sign.DE:274.1" color="black" fill="0" layer="0.00" shape="53.352322,374.259376 63.373681,369.482328 82.888031,360.262905"/>
    <poly id="1396650498" type="traffic_sign.DE:274.1" color="black" fill="0" layer="0.00" shape="82.888031,360.262905 99.475536,352.422556 99.918316,352.201156"/>
    <poly id="1396654238" type="amenity.parking" color="184,184,179" fill="1" layer="-1.00" shape="23.749346,221.796795 53.585583,226.521488 52.808018,231.457492 22.977338,226.677040 23.749346,221.796795"/>
    <poly id="1396654239" type="amenity.parking" color="184,184,179" fill="1" layer="-1.00" shape="61.048712,227.733199 66.339905,228.604375 65.398580,233.499554 60.255573,232.580530 61.048712,227.733199"/>
    <poly id="1396654240" type="amenity.parking" color="184,184,179" fill="1" layer="-1.00" shape="77.308807,230.338038 104.669627,234.506769 103.825705,239.511024 76.515653,235.185366 77.308807,230.338038"/>
    <poly id="1396654241" type="amenity.parking" color="184,184,179" fill="1" layer="-1.00" shape="112.628498,235.740777 121.990522,237.221400 121.200331,242.202186 111.838566,240.732687 112.628498,235.740777"/>
    <poly id="1396814682" type="amenity.parking" color="184,184,179" fill="1" layer="-1.00" shape="91.467834,413.171496 95.046042,409.685799 139.558302,454.919454 136.302339,457.952751 91.467834,413.171496"/>
    <poly id="1396814683" type="amenity.parking" color="184,184,179" fill="1" layer="-1.00" shape="92.677669,407.246515 95.046042,409.685799 91.467834,413.171496 89.099712,410.743336 92.677669,407.246515"/>
    <poly id="1396814684" type="amenity.parking" color="184,184,179" fill="1" layer="-1.00" shape="89.247027,403.729506 92.677669,407.246515 89.099712,410.743336 85.703724,407.258932 89.247027,403.729506"/>
    <poly id="1396822302" type="amenity.parking" color="184,184,179" fill="1" layer="-1.00" shape="313.260057,430.748185 304.838374,420.377233 303.278919,421.625217 311.700603,431.996167 313.260057,430.748185"/>
    <poly id="1396822303" type="amenity.parking" color="184,184,179" fill="1" layer="-1.00" shape="313.344870,433.917696 314.917885,432.669410 317.780255,436.266110 316.206990,437.503273 313.344870,433.917696"/>
    <poly id="1396822306" type="amenity.parking" color="184,184,179" fill="1" layer="-1.00" shape="299.482899,416.936736 294.870232,411.532183 296.394534,410.229348 301.007200,415.633902 299.482899,416.936736"/>
    <poly id="1396822307" type="amenity.parking" color="184,184,179" fill="1" layer="-1.00" shape="282.502970,396.765476 277.854111,391.261602 279.385446,389.969731 284.027523,395.473759 282.502970,396.765476"/>
    <poly id="1396822308" type="amenity.parking" color="184,184,179" fill="1" layer="-1.00" shape="276.665077,389.975260 273.961611,386.508542 275.541663,385.271213 278.245379,388.749054 276.665077,389.975260"/>
    <poly id="1396822309" type="amenity.parking" color="184,184,179" fill="1" layer="-1.00" shape="271.717183,383.543382 267.392725,378.588611 268.896438,377.275103 273.220895,382.229874 271.717183,383.543382"/>
    <poly id="1396822310" type="amenity.parking" color="184,184,179" fill="1" layer="-1.00" shape="258.793361,367.565189 252.622942,360.170449 254.161313,358.889540 260.324949,366.284434 258.793361,367.565189"/>
    <poly id="1396822311" type="amenity.parking" color="184,184,179" fill="1" layer="-1.00" shape="248.156074,354.918447 244.170336,350.245400 245.728049,348.919542 249.713786,353.592591 248.156074,354.918447"/>
    <poly id="1396822312" type="amenity.parking" color="184,184,179" fill="1" layer="-1.00" shape="239.268997,344.680472 236.040125,340.780480 237.585528,339.510536 240.814400,343.410529 239.268997,344.680472"/>
    <poly id="1396822313" type="amenity.parking" color="184,184,179" fill="1" layer="-1.00" shape="234.794069,339.373024 228.910631,332.072007 230.463066,330.813030 236.353284,338.113896 234.794069,339.373024"/>
    <poly id="1396822314" type="amenity.parking" color="184,184,179" fill="1" layer="-1.00" shape="224.778704,327.235346 221.185691,322.831677 222.758221,321.561117 226.344452,325.964940 224.778704,327.235346"/>
    <poly id="1425021017" type="landuse.construction" color="194,194,130" fill="1" layer="-3.00" shape="353.730719,281.716856 361.943348,271.906814 359.943440,269.859725 369.131556,255.754715 331.318749,219.693515 324.359936,226.125968 303.416801,203.818139 302.441199,205.086380 283.739405,231.178586 353.730719,281.716856"/>
    <poly id="1467468210" type="landuse.brownfield" color="194,194,130" fill="1" layer="-3.00" shape="308.981030,416.945776 348.331166,385.315348 351.773416,345.879063 297.090952,402.580035 308.981030,416.945776"/>
    <poly id="24700550" type="traffic_sign.DE:274.1" color="black" fill="0" layer="0.00" shape="39.562255,380.690385 53.352322,374.259376"/>
    <poly id="247446423" type="building.apartments" color="255,230,230" fill="1" layer="-1.00" shape="134.147808,431.261173 142.572620,422.770166 149.759253,430.097383 152.503200,430.235914 155.884309,433.665058 146.059819,443.266948 139.901794,437.029357 134.147808,431.261173"/>
    <poly id="247446431" type="building.apartments" color="255,230,230" fill="1" layer="-1.00" shape="104.950386,446.106568 111.644894,439.713115 115.698789,443.794749 116.143333,443.350754 118.954663,446.180675 118.510119,446.624669 119.225318,447.354127 119.669862,446.910133 122.467126,449.718116 122.022581,450.162110 122.446226,450.597683 119.645852,453.375922 119.222458,452.951472 116.183490,455.979897 116.600103,456.404500 116.581116,458.875298 114.112170,458.897512 113.661153,458.451428 110.648563,461.445880 111.092800,461.892116 108.291939,464.648117 107.840921,464.202034 107.396380,464.646030 104.612677,461.837749 105.063999,461.393601 102.925932,459.238449 102.481140,459.671322 99.704463,456.874014 100.155785,456.429865 99.704766,455.983783 102.504877,453.194410 102.928272,453.618859 106.504703,450.055315 106.810715,447.978654 104.950386,446.106568"/>
    <poly id="247446433" type="building.apartments" color="255,230,230" fill="1" layer="-1.00" shape="134.147808,431.261173 129.351094,426.428431 124.714086,421.759015 134.189985,412.342976 143.613168,421.678472 142.572620,422.770166 134.147808,431.261173"/>
    <poly id="24916743" type="building.apartments" color="255,230,230" fill="1" layer="-1.00" shape="245.156635,318.687083 235.442453,328.686896 224.310593,315.172231 224.427602,312.532315 228.772684,306.636998 233.117777,300.741685 243.966853,308.620944 241.387767,312.195331 240.372876,312.318308 240.476735,313.617922 240.755254,313.633913 245.156635,318.687083"/>
    <poly id="24916765" type="building.apartments" color="255,230,230" fill="1" layer="-1.00" shape="298.386383,346.733975 300.672009,344.590572 313.988379,357.210587 301.849317,370.102356 284.873575,388.143786 278.528949,380.541504 272.769902,373.638241 282.090772,363.647343 290.525936,373.706380 292.114587,371.945858 291.647016,371.366597 299.463391,363.256770 300.059299,363.810890 301.601490,362.095927 300.063910,360.394559 299.568346,360.984344 291.683446,353.372160 298.386383,346.733975"/>
    <poly id="24916970" type="building.yes" color="255,230,230" fill="1" layer="-1.00" shape="330.106873,368.031727 326.383303,364.454374 327.457559,363.350837 337.310999,353.203419 337.859187,353.747488 340.343537,351.087760 343.559854,354.131261 330.106873,368.031727"/>
    <poly id="24916971" type="building.apartments" color="255,230,230" fill="1" layer="-1.00" shape="90.468407,216.376710 92.384397,204.449076 110.260936,207.429351 111.405766,206.146131 111.556333,196.261263 111.634776,191.007180 121.283947,192.581488 123.490296,192.943540 123.291187,218.753367 121.013086,221.230518 90.468407,216.376710"/>
    <poly id="24917540" type="building.apartments" color="255,230,230" fill="1" layer="-1.00" shape="69.554240,413.754132 69.726532,413.572206 68.796355,412.636170 68.624063,412.818096 68.311660,412.502428 68.490983,412.331471 66.963122,410.763488 64.484238,408.237684 64.238860,408.488024 62.156252,406.387278 70.152763,398.462183 73.228330,401.575449 73.506861,401.290979 74.985503,402.782179 77.685881,405.503299 90.722639,418.640900 97.893292,425.857126 97.621291,426.130319 89.857604,433.849826 89.605445,434.100317 87.515828,431.988591 87.768237,431.749222 83.658558,427.602100 83.479485,427.784178 83.180896,427.479325 83.353439,427.308522 82.416235,426.361514 82.243693,426.532318 81.924510,426.216801 82.103834,426.045845 78.091583,422.007811 77.845954,422.247028 73.868352,418.241599 74.113981,418.002382 70.038935,413.887874 69.859611,414.058831 69.554240,413.754132"/>
    <poly id="25388349" type="building.apartments" color="255,230,230" fill="1" layer="-1.00" shape="183.899648,267.397392 173.494767,254.845720 183.004136,246.897907 193.599377,259.467571 183.899648,267.397392"/>
    <poly id="25388351" type="building.apartments" color="255,230,230" fill="1" layer="-1.00" shape="183.899648,267.397392 193.599377,259.467571 194.571889,258.666744 199.241498,261.766477 195.461474,264.733626 195.533895,266.746125 196.560235,268.036110 197.286602,267.452249 198.043049,267.602146 200.825226,271.245099 202.997426,270.995925 206.280056,266.426444 216.865618,273.443609 205.275597,289.327768 202.122438,289.398712 183.899648,267.397392"/>
    <poly id="25388352" type="building.apartments" color="255,230,230" fill="1" layer="-1.00" shape="201.520906,252.712813 191.354655,239.910924 199.685355,232.946657 205.412483,240.228905 206.259565,240.788492 207.219172,241.223141 208.528641,241.527514 209.716576,241.556427 210.034335,246.935125 201.520906,252.712813"/>
    <poly id="25388353" type="building.retail" color="255,230,230" fill="1" layer="-1.00" shape="155.192538,226.915177 155.237959,220.493421 165.295784,220.634259 165.315587,207.647687 177.841257,207.710754 177.705172,233.318850 158.345278,233.153669 158.375365,226.954814 155.192538,226.915177"/>
    <poly id="25388820" type="building.apartments" color="255,230,230" fill="1" layer="-1.00" shape="260.980698,263.304335 265.976691,267.042202 271.060080,270.744725 262.109301,282.719187 252.080897,275.433458 254.160913,272.593607 260.980698,263.304335"/>
    <poly id="25388821" type="building.apartments" color="255,230,230" fill="1" layer="-1.00" shape="276.209962,274.991019 285.946187,282.862010 277.426936,294.114563 267.387796,286.651002 276.209962,274.991019"/>
    <poly id="25388828" type="building.apartments" color="255,230,230" fill="1" layer="-1.00" shape="263.454264,191.374389 267.044713,178.463327 270.072294,179.140812 277.733494,181.316516 278.048177,181.431847 274.735728,194.336650 263.454264,191.374389"/>
    <poly id="25632145" type="building.apartments" color="255,230,230" fill="1" layer="-1.00" shape="251.945731,202.148940 255.234462,192.416069 244.317633,189.679336 245.328544,186.663228 263.454264,191.374389 274.735728,194.336650 266.302962,205.820955 265.467022,206.963658 263.319999,206.221864 251.945731,202.148940"/>
    <poly id="25632146" type="building.dormitory" color="255,230,230" fill="1" layer="-1.00" shape="218.786420,273.177842 217.155475,273.058744 216.865618,273.443609 206.286087,266.392925 205.742002,264.524571 207.136538,262.579217 208.761481,262.431381 208.414022,260.859053 209.909525,258.878044 211.514627,258.752911 211.143547,257.336903 212.343915,255.807647 213.764929,255.642145 214.330583,254.850475 213.934131,253.512932 216.027698,250.672760 217.307487,251.467425 228.028209,258.158868 229.066879,259.092493 227.376694,261.467347 225.520444,261.586997 225.995711,263.412390 223.979514,266.072773 222.295320,265.999381 222.867549,267.611165 221.402169,269.725025 219.518049,269.811921 220.114374,271.590079 218.786420,273.177842"/>
    <poly id="25649169" type="building.apartments" color="255,230,230" fill="1" layer="-1.00" shape="209.223781,354.748208 208.673076,354.092931 207.814105,354.813307 205.750155,352.333737 206.575972,351.647490 203.501012,347.955484 202.775157,348.561588 201.792022,347.381908 199.607926,349.211496 198.122801,347.431084 199.467769,346.299170 194.642740,340.510012 204.532224,332.275487 209.043599,337.693367 209.922666,336.961411 211.505474,338.862035 214.775554,342.783340 213.863084,343.538302 216.177901,346.312682 217.474931,347.874776 209.223781,354.748208"/>
    <poly id="25649170" type="building.apartments" color="255,230,230" fill="1" layer="-1.00" shape="217.649805,364.996502 209.223781,354.748208 217.474931,347.874776 218.716211,349.371357 225.669423,357.783331 217.649805,364.996502"/>
    <poly id="25649171" type="building.apartments" color="255,230,230" fill="1" layer="-1.00" shape="251.585412,416.600513 248.273920,413.247634 250.804656,410.542303 244.477870,402.527935 254.519396,392.609794 258.389818,397.285442 264.045396,404.113121 262.414081,405.785590 255.202161,413.013920 251.585412,416.600513"/>
    <poly id="25649176" type="building.industrial" color="white" fill="1" layer="0.00" shape="212.531315,450.194709 224.676383,462.317829 232.206374,469.837737 237.417094,465.636628 245.352866,459.226570 241.148996,454.202344 239.099664,451.766944 239.557780,451.322656 237.224103,449.516809 236.791109,449.871510 234.167487,446.636701 234.521864,446.406174 232.667642,444.200071 227.523321,438.084233 217.048851,446.543308 212.531315,450.194709"/>
    <poly id="25649177" type="building.apartments" color="255,230,230" fill="1" layer="-1.00" shape="154.263022,353.804017 154.415185,354.234576 142.480688,359.922469 131.739193,364.960376 131.386626,364.367413 129.111137,366.354882 128.541331,365.755682 127.366447,366.305142 126.504657,368.104992 129.197742,370.804048 129.701569,370.280826 133.563635,374.277773 129.340902,378.367724 121.024090,369.964330 111.226855,359.991884 133.050920,349.696896 136.213676,348.245844 139.166727,346.821771 159.501814,337.283734 164.997599,347.853838 160.561876,351.525699 159.641012,350.400264 157.451424,351.985184 157.629208,352.348400 154.263022,353.804017"/>
    <poly id="25649178" type="building.apartments" color="255,230,230" fill="1" layer="-1.00" shape="105.996965,402.807004 104.200599,401.968363 102.287474,400.765135 103.130355,399.933823 101.465633,398.313273 99.610813,396.385426 98.767181,397.183372 98.087396,396.219436 97.357408,394.833774 96.722601,393.457097 101.207762,388.971733 102.038085,388.185215 102.287706,388.424405 102.135754,388.605872 104.509909,391.000519 107.111145,388.415930 110.810745,392.127195 111.627007,391.318740 114.063724,393.177849 114.923082,393.981954 105.996965,402.807004"/>